<routes>
    <vType id="normal car" vClass="passenger" maxSpeed="120" speedFactor="0.9" speedDev="0.2" sigma="0.5" />
    <vType id="fast car" vClass="passenger" maxSpeed="150" speedFactor="1.3" speedDev="0.1" sigma="0.1" />
    <vType id="trailer" vClass="trailer"  maxSpeed="80" speedFactor="1.1" speedDev="0.1" />
    
    <flow id="normal-1" type="normal car" begin="0" end="3600" vehsPerHour="2500" from="11S" to="12N" departPos="base" departLane="random" />
    <flow id="fast-1" type="fast car" begin="0" end="3600" vehsPerHour="640" from="11S" to="12N" departPos="base" departLane="2" />
    <flow id="trailer-1" type="trailer" begin="0" end="3600" vehsPerHour="620" from="11S" to="12N" departPos="base" departLane="first" />
	
	<flow id="normal-2" type="normal car" begin="3600" end="7200" vehsPerHour="3500" from="11S" to="12N" departPos="base" departLane="random" />
    <flow id="fast-2" type="fast car" begin="3600" end="7200" vehsPerHour="350" from="11S" to="12N" departPos="base" departLane="2" />
    <flow id="trailer-2" type="trailer" begin="3600" end="7200" vehsPerHour="360" from="11S" to="12N" departPos="base" departLane="first" />
</routes>